/*--------------------------------*- C++ -*----------------------------------*\
  =========                 |
  \\      /  F ield         | OpenFOAM: The Open Source CFD Toolbox
   \\    /   O peration     | Website:  https://openfoam.org
    \\  /    A nd           | Version:  8
     \\/     M anipulation  |
\*---------------------------------------------------------------------------*/
FoamFile
{
    version     2.0;
    format      ascii;
    class       polyBoundaryMesh;
    location    "constant/polyMesh";
    object      boundary;
}
// * * * * * * * * * * * * * * * * * * * * * * * * * * * * * * * * * * * * * //

6
(
    west
    {
        type            patch;
        nFaces          530;
        startFace       132319;
    }
    east
    {
        type            patch;
        nFaces          530;
        startFace       132849;
    }
    north
    {
        type            patch;
        nFaces          870;
        startFace       133379;
    }
    south
    {
        type            patch;
        nFaces          870;
        startFace       134249;
    }
    ground
    {
        type            wall;
        inGroups        List<word> 1(wall);
        nFaces          4611;
        startFace       135119;
    }
    top
    {
        type            patch;
        nFaces          4611;
        startFace       139730;
    }
)

// ************************************************************************* //
