/*--------------------------------*- C++ -*----------------------------------*\
| =========                 |                                                 |
| \\      /  F ield         | OpenFOAM: The Open Source CFD Toolbox           |
|  \\    /   O peration     | Version:  2.4.0                                 |
|   \\  /    A nd           | Web:      www.OpenFOAM.org                      |
|    \\/     M anipulation  |                                                 |
\*---------------------------------------------------------------------------*/
FoamFile
{
    version     2.0;
    format      ascii;
    class       volScalarField;
    location    "0/air";
    object      qr;
}
// * * * * * * * * * * * * * * * * * * * * * * * * * * * * * * * * * * * * * //

dimensions      [1 0 -3 0 0 0 0];

internalField   uniform 0;

boundaryField
{
    west
    {
        type            greyDiffusiveRadiationViewFactor;
        emissivityMode  lookup;
        emissivity      uniform 1;
        qro             uniform 0;
        value           uniform 0; 
    }
    east
    {
        type            greyDiffusiveRadiationViewFactor;
        emissivityMode  lookup;
        emissivity      uniform 1;
        qro             uniform 0;
        value           uniform 0; 
    }
    top
    {
        type            greyDiffusiveRadiationViewFactor;
        emissivityMode  lookup;
        emissivity      uniform 1;
        qro             uniform 0;
        value           uniform 0; 
    }
    ground
    {
        type            greyDiffusiveRadiationViewFactor;
        emissivityMode  lookup;
        emissivity      uniform 0.9;
        qro             uniform 0;
        value           uniform 0; 
    }
    north
    {
        type            greyDiffusiveRadiationViewFactor;
        emissivityMode  lookup;
        emissivity      uniform 1;
        qro             uniform 0;
        value           uniform 0; 
    }
    south
    {
        type            greyDiffusiveRadiationViewFactor;
        emissivityMode  lookup;
        emissivity      uniform 1;
        qro             uniform 0;
        value           uniform 0; 
    }
    buildings
    {
        type            greyDiffusiveRadiationViewFactor;
        emissivityMode  lookup;
        emissivity      uniform 0.9;
        qro             uniform 0;
        value           uniform 0; 
    }
    air_to_vegetation
    {
        type            greyDiffusiveRadiationViewFactor;
        emissivityMode  lookup;
        emissivity      uniform 0.9;
        qro             uniform 0;
        value           uniform 0;
    }
}


// ************************************************************************* //
