/*--------------------------------*- C++ -*----------------------------------*\
  =========                 |
  \\      /  F ield         | OpenFOAM: The Open Source CFD Toolbox
   \\    /   O peration     | Website:  https://openfoam.org
    \\  /    A nd           | Version:  6
     \\/     M anipulation  |
\*---------------------------------------------------------------------------*/
FoamFile
{
    version     0.0;
    format      ascii;
    class       polyBoundaryMesh;
    location    "constant/vegetation/polyMesh";
    object      boundary;
}
// * * * * * * * * * * * * * * * * * * * * * * * * * * * * * * * * * * * * * //


8
(
    west
    {
        type            mappedPatch;
        nFaces          2000;
        startFace       5708152;
        sampleMode      nearestPatchFace;
        sampleRegion    air;
        samplePatch     west;
        offsetMode      uniform;
        offset          ( 0 0 0 );
    }

    east
    {
        type            mappedPatch;
        nFaces          2000;
        startFace       5710152;
        sampleMode      nearestPatchFace;
        sampleRegion    air;
        samplePatch     east;
        offsetMode      uniform;
        offset          ( 0 0 0 );
    }

    north
    {
        type            mappedPatch;
        nFaces          2160;
        startFace       5712152;
        sampleMode      nearestPatchFace;
        sampleRegion    air;
        samplePatch     north;
        offsetMode      uniform;
        offset          ( 0 0 0 );
    }

    south
    {
        type            mappedPatch;
        nFaces          2160;
        startFace       5714312;
        sampleMode      nearestPatchFace;
        sampleRegion    air;
        samplePatch     south;
        offsetMode      uniform;
        offset          ( 0 0 0 );
    }

    ground
    {
        type            mappedWall;
        inGroups        1 ( wall );
        nFaces          71241;
        startFace       5716472;
        sampleMode      nearestPatchFace;
        sampleRegion    air;
        samplePatch     ground;
        offsetMode      uniform;
        offset          ( 0 0 0 );
    }

    top
    {
        type            mappedPatch;
        nFaces          10800;
        startFace       5787713;
        sampleMode      nearestPatchFace;
        sampleRegion    air;
        samplePatch     top;
        offsetMode      uniform;
        offset          ( 0 0 0 );
    }

    buildings
    {
        type            mappedWall;
        inGroups        1 ( wall );
        nFaces          281466;
        startFace       5798513;
        sampleMode      nearestPatchFace;
        sampleRegion    air;
        samplePatch     buildings;
        offsetMode      uniform;
        offset          ( 0 0 0 );
    }

    air_to_vegetation
    {
        type            mappedWall;
        inGroups        1 ( wall );
        nFaces          50840;
        startFace       6079979;
        sampleMode      nearestCell;
        sampleRegion    air;
        offsetMode      uniform;
        offset          ( 0 0 0 );
    }

)


// ************************************************************************* //
