/*--------------------------------*- C++ -*----------------------------------*\
  =========                 |
  \\      /  F ield         | OpenFOAM: The Open Source CFD Toolbox
   \\    /   O peration     | Website:  https://openfoam.org
    \\  /    A nd           | Version:  6
     \\/     M anipulation  |
\*---------------------------------------------------------------------------*/
FoamFile
{
    version     0.0;
    format      ascii;
    class       polyBoundaryMesh;
    location    "constant/air/polyMesh";
    object      boundary;
}
// * * * * * * * * * * * * * * * * * * * * * * * * * * * * * * * * * * * * * //


7
(
    west
    {
        type            patch;
        nFaces          2000;
        startFace       5872388;
    }

    east
    {
        type            patch;
        nFaces          2000;
        startFace       5874388;
    }

    north
    {
        type            patch;
        nFaces          2160;
        startFace       5876388;
    }

    south
    {
        type            patch;
        nFaces          2160;
        startFace       5878548;
    }

    ground
    {
        type            wall;
        inGroups        1 ( wall );
        nFaces          65318;
        startFace       5880708;
    }

    top
    {
        type            patch;
        nFaces          10800;
        startFace       5946026;
    }

    buildings
    {
        type            mappedWall;
        inGroups        1 ( wall );
        nFaces          268450;
        startFace       5956826;
        sampleMode      nearestPatchFace;
        sampleRegion    buildings;
        samplePatch     buildings_to_air;
        offsetMode      uniform;
        offset          ( 0 0 0 );
    }

)


// ************************************************************************* //
